/batch
/config,noeldb,1     ! force off writing results to database
*get,_wallstrt,active,,time,wall
! ANSYS input file written by Workbench version 2025 R2
! File used for geometry attach: D:\university\Mechatronics Applications and Recent Directions\project\mahmoud project\Assemb.stp
/title,project--Static Structural (A5)
! ****** Begin Custom Load Command Snippet ******
/COM, ACT Extensions:
/COM,     PiezoAndMEMS, 2020.1
/COM,     0cd64874-101b-4182-aef8-530cf9982bb6, wbex
/COM,/COM,     LSDYNA, 2025.2
/COM,     5f463412-bd3e-484b-87e7-cbc0a665e474, wbex
/COM,/COM,     ANSYSMotion, 2025.2
/COM,     20180725-3f81-49eb-9f31-41364844c769, wbex
/COM,
! ****** End   Custom Load Command Snippet ******
*DIM,_wb_ProjectScratch_dir,string,248
_wb_ProjectScratch_dir(1) = 'D:\university\Mechatronics Applications and Recent Directions\project\mahmoud project\_ProjectScratch\ScrE9CB\'
*DIM,_wb_SolverFiles_dir,string,248
_wb_SolverFiles_dir(1) = 'D:\university\Mechatronics Applications and Recent Directions\project\mahmoud project\project_files\dp0\SYS\MECH\'
*DIM,_wb_userfiles_dir,string,248
_wb_userfiles_dir(1) = 'D:\university\Mechatronics Applications and Recent Directions\project\mahmoud project\project_files\user_files\'
/com,--- Data in consistent MKS units. See Solving Units in the help system for more information.
/units,MKS
/nopr
/wb,file,start              !  signify a WB generated input file
/prep7
! Turn off shape checking because checks already performed inside WB mesher.
! See help system for more information.
SHPP,OFF,,NOWARN
/nolist
etcon,set             ! allow ANSYS to choose best KEYOP's for 180x elements, resets any applicable keyopt to MAPDL defaults
/com,*********** Send User Defined Coordinate System(s) ***********
local,12,0,-3.26392162471001e-003,9.42452372069859e-004,1.0000000000002e-006,0.,0.,0.
local,13,0,-3.26392194762082e-003,9.5941324296524e-004,1.0000000000002e-006,0.,0.,0.
csys,0
/com,*********** Nodes for the whole assembly ***********
nblock,3,,26436
(1i9,3e20.9e3)
     8161    -3.255772771E-03     9.632324482E-04     5.000000000E-07
     8162    -3.256221420E-03     9.632324377E-04     5.000000000E-07
     8163    -3.256670069E-03     9.632324273E-04     5.000000000E-07
     8164    -3.257118717E-03     9.632324168E-04     5.000000000E-07
     8165    -3.257667366E-03     9.632324040E-04     5.000000000E-07
     8166    -3.258116015E-03     9.632323936E-04     5.000000000E-07
     8167    -3.258664663E-03     9.632323808E-04     5.000000000E-07
     8168    -3.259113312E-03     9.632323703E-04     5.000000000E-07
     8169    -3.259661961E-03     9.632323576E-04     5.000000000E-07
     8170    -3.260110609E-03     9.632323471E-04     5.000000000E-07
     8171    -3.260559258E-03     9.632323367E-04     5.000000000E-07
     8172    -3.261007907E-03     9.632323262E-04     5.000000000E-07
     8173    -3.261456555E-03     9.632323158E-04     5.000000000E-07
     8174    -3.261905204E-03     9.632323053E-04     5.000000000E-07
     8175    -3.262353852E-03     9.632322949E-04     5.000000000E-07
     8176    -3.262802501E-03     9.632322844E-04     5.000000000E-07
     8177    -3.263251150E-03     9.632322740E-04     5.000000000E-07
     8178    -3.263699798E-03     9.632322635E-04     5.000000000E-07
     8179    -3.264148447E-03     9.632322531E-04     5.000000000E-07
     8180    -3.264597096E-03     9.632322426E-04     5.000000000E-07
! ... 24014 like lines cut
/wb,elem,start            !  set before creation of elements
/com,*********** Elements for Body 1 'beam:1|Solid1' ***********
et,1,187
MAT,1 $ TYPE,1 $ REAL,1 $ SECNUM,1 $ ESYS,0
eblock,11,COMPACT,,3917
(11i9)
        1     1131     1339     1482     1469     7054     7974     7057     7056     7973     8160
        2     1131     1482     1339     1375     7057     7974     7054     7055     8052     7970
        3      930     1285     1482     1409     5678     7782     5681     5680     7780     8112
        4      930     1482     1339     1409     5681     7974     5679     5680     8112     7971
        5     1131     1482     1283     1469     7057     7774     7053     7056     8160     7773
        6     1131     1283     1482     1375     7053     7774     7057     7055     7770     8052
        7     1339     1409     1482     1469     7971     8112     7974     7973     8111     8160
        8     1285     1482     1409     1469     7782     8112     7780     7781     8160     8111
        9       35     1339     1482     1375     1767     7974     1769     1768     7970     8052
       10       35      930     1482     1339     1762     5681     1769     1767     5679     7974
       11       35     1482      930     1285     1769     5681     1762     1766     7782     5678
       12       37     1250     1482     1285     1774     7644     1777     1776     7639     7782
       13       37     1283     1482     1250     1775     7774     1777     1774     7638     7644
       14       35     1482     1283     1375     1769     7774     1765     1768     8052     7770
       15     1250     1283     1482     1469     7638     7774     7644     7643     7773     8160
       16     1250     1482     1285     1469     7644     7782     7639     7643     8160     7781
       17       35       37     1283     1482     1761     1775     1765     1769     1777     7774
       18       57      966     1481     1295     1912     5857     1916     1913     5853     7825
       19       57     1481      966      934     1916     5857     1912     1910     5698     5695
       20     1295     1481     1300     1380     7825     7846     7821     7822     8061     7843
! ... 3898 like lines cut
secnum,1    ! reset the section ID to default
! Material Id = {548455F3-4A8D-44D8-8635-CAE9D5ADEC24}
/com,*********** Elements for Body 2 'bot:1|Solid1' ***********
et,2,186
keyo,2,2,1          ! set full integration on SOLID186
MAT,2 $ TYPE,2 $ REAL,2 $ SECNUM,2 $ ESYS,0
eblock,11,COMPACT,,686
(11i9)
     3918     9849     9873     9875     9877     9861     9874     9876     9900    13729    13788
    13791    13730    13764    13789    13792    13765    13728    13787    13790    13794
     3919     8485     8509     8510     8497     9877     9849     9873     9875    10884    10944
    10919    10883    13730    13729    13788    13791    10885    10945    10946    10920
     3920     9849     9877     9878     9850     9861     9900     9899     9862    13730    13793
    13733    13727    13765    13826    13767    13763    13728    13794    13796    13732
     3921     8485     8486     8508     8509     9877     9878     9850     9849    10882    10887
    10942    10884    13793    13733    13727    13730    10885    10888    10943    10945
     3922     9850     9878     9879     9851     9862     9899     9898     9863    13733    13795
    13736    13731    13767    13825    13769    13766    13732    13796    13798    13735
     3923     8486     8487     8507     8508     9878     9879     9851     9850    10886    10890
    10940    10887    13795    13736    13731    13733    10888    10891    10941    10943
     3924     9851     9879     9880     9852     9863     9898     9897     9864    13736    13797
    13739    13734    13769    13824    13771    13768    13735    13798    13800    13738
     3925     8487     8488     8506     8507     9879     9880     9852     9851    10889    10893
    10938    10890    13797    13739    13734    13736    10891    10894    10939    10941
     3926     9852     9880     9881     9853     9864     9897     9896     9865    13739    13799
    13742    13737    13771    13823    13773    13770    13738    13800    13802    13741
     3927     8488     8489     8505     8506     9880     9881     9853     9852    10892    10896
    10936    10893    13799    13742    13737    13739    10894    10897    10937    10939
! ... 1353 like lines cut
secnum,1    ! reset the section ID to default
! Material Id = {FD8CFE5B-3D1B-4514-82A1-50F8D0EC6CC1}
/com,*********** Elements for Body 3 'top:1|Solid1' ***********
et,3,187
MAT,3 $ TYPE,3 $ REAL,3 $ SECNUM,3 $ ESYS,0
eblock,11,COMPACT,,4618
(11i9)
     4604    15352    15477    15746    15742    22808    23337    22817    22816    23336    24033
     4605    15352    15746    15617    15742    22817    23874    22812    22816    24033    23873
     4606    15352    15617    15746    15665    22812    23874    22817    22814    23871    23969
     4607    13895    15746    15617    15665    16228    23874    16226    16227    23969    23871
     4608    13895    15746    15212    15617    16228    21946    16223    16226    23874    21944
     4609    13895    15077    15746    15665    16221    20916    16228    16227    20915    23969
     4610    13895    15212    15746    15077    16223    21946    16228    16221    20913    20916
     4611    13873    15621    15746    15665    16080    23885    16082    16081    23883    23969
     4612    15212    15617    15746    15742    21944    23874    21946    21945    23873    24033
     4613    13873    15746    15077    15665    16082    20916    16075    16081    23969    20915
     4614    13873    15212    15077    15746    16077    20913    16075    16082    21946    20916
     4615    14601    15212    15746    15742    19039    21946    19041    19040    21945    24033
     4616    14601    15746    15146    15742    19041    21530    19038    19040    24033    21529
     4617    14601    15212    15146    15746    19039    21524    19038    19041    21946    21530
     4618    13873    15146    15746    15621    16076    21530    16082    16080    21528    23885
     4619    13873    15146    15212    15746    16076    21524    16077    16082    21530    21946
     4620    15543    15745    15604    15676    23629    23821    23625    23628    23982    23819
     4621    13830    15543    15745    15604    15782    23629    15787    15784    23625    23821
     4622    15340    15606    15745    15676    22733    23830    22740    22739    23829    23982
     4623    13829    15745    15543    15608    15775    23629    15770    15772    23841    23626
! ... 4599 like lines cut
secnum,1    ! reset the section ID to default
! Material Id = {DEFDB4E3-5194-4B41-A863-93090D805E17}
/wb,elem,end               !  done creating elements
toffst,273.15,      ! Temperature offset from absolute zero
/com,*********** Set Reference Temperature ***********
tref,22.
/wb,mat,start              !  starting to send materials
/com,*********** Send Materials ***********
MP,EX,1,169000,	! Pa
MP,NUXY,1,0.066,
MP,UVID,1,19febd7d-2e00-406b-9243-b15c3ca70210

Temperature = 'TEMP' ! Temperature
MP,DENS,2,7850,	! kg m^-3
MP,ALPX,2,1.2e-05,	! C^-1
MP,C,2,434,	! J kg^-1 C^-1
MP,KXX,2,60.5,	! W m^-1 C^-1
MP,RSVX,2,1.7e-07,	! kg m^3 A^-2 s^-3
MP,EX,2,200000000000,	! Pa
MP,NUXY,2,0.3,
MP,MURX,2,10000,
MP,UVID,2,dbb2cc51-d35c-4808-a67d-a2bbc424f20f
MP,UMID,2,59002a79-71c2-428e-906b-55d7dbee100e

MP,EX,3,137,	! Pa
MP,NUXY,3,0.28,
MP,UVID,3,61e153eb-94ea-4a89-8328-911e8d6ac394

/wb,mat,end                !  done sending materials
!************************* Model Summary ********************
!beam:1|Solid1,	Beam,	matid,	1
!bot:1|Solid1,	Structural Steel,	matid,	2
!top:1|Solid1,	Ni-Iron,	matid,	3
!************************* End Model Summary ********************
! get the diagonal of the bounding box. Needed later for other things
*get,_xmin,node,,mnloc,x
*get,_ymin,node,,mnloc,y
*get,_zmin,node,,mnloc,z
*get,_xmax,node,,mxloc,x
*get,_ymax,node,,mxloc,y
*get,_zmax,node,,mxloc,z
_ASMDIAG=(_xmax-_xmin)*(_xmax-_xmin)+(_ymax-_ymin)*(_ymax-_ymin)+(_zmax-_zmin)*(_zmax-_zmin)
_ASMDIAG=SQRT(_ASMDIAG)
/wb,contact,start          !  starting to send contact
/com,*********** Create Contact "Contact Region" ***********
/com,            Real Constant Set For Above Contact Is 5 & 4 
*set,tid,5
*set,cid,4
r,tid
r,cid
et,tid,170
et,cid,174
MAT,5 $ TYPE,5 $ REAL,5 $ SECNUM,5 $ ESYS,0
eblock,11,COMPACT,,54
(11i9)
    16912      396      521      520      520     3789     4409      520     3788
    16913      395      520      519      519     3784     4404      519     3783
    16914      395      396      520      520     3782     3788      520     3784
    16915      394      519      518      518     3779     4399      518     3778
    16916      394      395      519      519     3777     3783      519     3779
    16917      393      518      517      517     3774     4394      517     3773
    16918      393      394      518      518     3772     3778      518     3774
    16919      392      517      516      516     3769     4389      516     3768
    16920      392      393      517      517     3767     3773      517     3769
    16921      391      516      515      515     3764     4384      515     3763
    16922      391      392      516      516     3762     3768      516     3764
    16923      390      515      514      514     3759     4379      514     3758
    16924      390      391      515      515     3757     3763      515     3759
    16925      389      514      513      513     3754     4374      513     3753
    16926      389      390      514      514     3752     3758      514     3754
    16927      388      513      512      512     3749     4369      512     3748
    16928      388      389      513      513     3747     3753      513     3749
    16929      387      512      511      511     3744     4364      511     3743
    16930      387      388      512      512     3742     3748      512     3744
    16931      386      511      510      510     3739     4359      510     3738
! ... 35 like lines cut
secnum,1    ! reset the section ID to default
MAT,4 $ TYPE,4 $ REAL,4 $ SECNUM,4 $ ESYS,0
eblock,11,COMPACT,,54
(11i9)
    16966      396      521      520      520     3789     4409      520     3788
    16967      395      520      519      519     3784     4404      519     3783
    16968      395      396      520      520     3782     3788      520     3784
    16969      394      519      518      518     3779     4399      518     3778
    16970      394      395      519      519     3777     3783      519     3779
    16971      393      518      517      517     3774     4394      517     3773
    16972      393      394      518      518     3772     3778      518     3774
    16973      392      517      516      516     3769     4389      516     3768
    16974      392      393      517      517     3767     3773      517     3769
    16975      391      516      515      515     3764     4384      515     3763
    16976      391      392      516      516     3762     3768      516     3764
    16977      390      515      514      514     3759     4379      514     3758
    16978      390      391      515      515     3757     3763      515     3759
    16979      389      514      513      513     3754     4374      513     3753
    16980      389      390      514      514     3752     3758      514     3754
    16981      388      513      512      512     3749     4369      512     3748
    16982      388      389      513      513     3747     3753      513     3749
    16983      387      512      511      511     3744     4364      511     3743
    16984      387      388      512      512     3742     3748      512     3744
    16985      386      511      510      510     3739     4359      510     3738
! ... 35 like lines cut
secnum,1    ! reset the section ID to default
MAT,4 $ TYPE,4 $ REAL,5 $ SECNUM,4 $ ESYS,0
eblock,11,COMPACT,,74
(11i9)
    17020     9725     9653     8607     8608    13383    11168    11167    11169
    17021     9726     9689     9653     9725    13454    13382    13383    13489
    17022     9653     9654     8606     8607    13381    11166    11165    11168
    17023     9689     9690     9654     9653    13453    13385    13381    13382
    17024     9654     9655     8605     8606    13384    11164    11163    11166
    17025     9690     9691     9655     9654    13455    13387    13384    13385
    17026     9655     9656     8604     8605    13386    11162    11161    11164
    17027     9691     9692     9656     9655    13456    13389    13386    13387
    17028     9656     9657     8603     8604    13388    11160    11159    11162
    17029     9692     9693     9657     9656    13457    13391    13388    13389
    17030     9657     9658     8602     8603    13390    11158    11157    11160
    17031     9693     9694     9658     9657    13458    13393    13390    13391
    17032     9658     9659     8601     8602    13392    11156    11155    11158
    17033     9694     9695     9659     9658    13459    13395    13392    13393
    17034     9659     9660     8600     8601    13394    11154    11153    11156
    17035     9695     9696     9660     9659    13460    13397    13394    13395
    17036     9660     9661     8599     8600    13396    11152    11151    11154
    17037     9696     9697     9661     9660    13461    13399    13396    13397
    17038     9661     9662     8598     8599    13398    11150    11149    11152
    17039     9697     9698     9662     9661    13462    13401    13398    13399
! ... 55 like lines cut
secnum,1    ! reset the section ID to default
MAT,5 $ TYPE,5 $ REAL,4 $ SECNUM,5 $ ESYS,0
eblock,11,COMPACT,,74
(11i9)
    17094     9725     9653     8607     8608    13383    11168    11167    11169
    17095     9726     9689     9653     9725    13454    13382    13383    13489
    17096     9653     9654     8606     8607    13381    11166    11165    11168
    17097     9689     9690     9654     9653    13453    13385    13381    13382
    17098     9654     9655     8605     8606    13384    11164    11163    11166
    17099     9690     9691     9655     9654    13455    13387    13384    13385
    17100     9655     9656     8604     8605    13386    11162    11161    11164
    17101     9691     9692     9656     9655    13456    13389    13386    13387
    17102     9656     9657     8603     8604    13388    11160    11159    11162
    17103     9692     9693     9657     9656    13457    13391    13388    13389
    17104     9657     9658     8602     8603    13390    11158    11157    11160
    17105     9693     9694     9658     9657    13458    13393    13390    13391
    17106     9658     9659     8601     8602    13392    11156    11155    11158
    17107     9694     9695     9659     9658    13459    13395    13392    13393
    17108     9659     9660     8600     8601    13394    11154    11153    11156
    17109     9695     9696     9660     9659    13460    13397    13394    13395
    17110     9660     9661     8599     8600    13396    11152    11151    11154
    17111     9696     9697     9661     9660    13461    13399    13396    13397
    17112     9661     9662     8598     8599    13398    11150    11149    11152
    17113     9697     9698     9662     9661    13462    13401    13398    13399
! ... 55 like lines cut
secnum,1    ! reset the section ID to default
keyo,cid,8,2               ! auto create asymmetric contact (from Program Controlled setting)
keyo,cid,10,0              ! adjust contact stiffness each NR iteration (from Program Controlled setting)
keyo,cid,12,5              ! bonded always
keyo,cid,18,1              ! small sliding turned on by application
keyo,cid,2,0               ! augmented Lagrange (from Program Controlled setting)
keyo,cid,4,0               ! on Gauss point (from Program Controlled setting)
keyo,cid,9,1               ! ignore initial gaps/penetration
keyo,cid,7,0               ! No Prediction
rmod,tid,3,10.      ! FKN
rmod,tid,5,0.       ! ICONT
rmod,tid,6,0.       ! PINB
rmod,tid,10,0.      ! CNOF
rmod,tid,12,0.      ! FKT
rmod,tid,36,190     ! WB DSID
rmod,cid,3,10.      ! FKN
rmod,cid,5,0.       ! ICONT
rmod,cid,6,0.       ! PINB
rmod,cid,10,0.      ! CNOF
rmod,cid,12,0.      ! FKT
rmod,cid,36,190     ! WB DSID
/com,*********** Create Contact "Contact Region 2" ***********
/com,            Real Constant Set For Above Contact Is 7 & 6 
*set,tid,7
*set,cid,6
r,tid
r,cid
et,tid,170
et,cid,174
MAT,7 $ TYPE,7 $ REAL,7 $ SECNUM,7 $ ESYS,0
eblock,11,COMPACT,,480
(11i9)
    17168     8987     8963     8952     8953    12038    12014    12013    12015
    17169     8988     8975     8963     8987    12073    12037    12038    12096
    17170     8963     8964     8951     8952    12036    12012    12011    12014
    17171     8975     8976     8964     8963    12072    12041    12036    12037
    17172     8964     8965     8950     8951    12040    12010    12009    12012
    17173     8976     8977     8965     8964    12075    12044    12040    12041
    17174     8965     8966     8949     8950    12043    12008    12007    12010
    17175     8977     8978     8966     8965    12077    12047    12043    12044
    17176     8966     8967     8948     8949    12046    12006    12005    12008
    17177     8978     8979     8967     8966    12079    12050    12046    12047
    17178     8967     8968     8947     8948    12049    12004    12003    12006
    17179     8979     8980     8968     8967    12081    12053    12049    12050
    17180     8968     8969     8946     8947    12052    12002    12001    12004
    17181     8980     8981     8969     8968    12083    12056    12052    12053
    17182     8969     8970     8945     8946    12055    12000    11999    12002
    17183     8981     8982     8970     8969    12085    12059    12055    12056
    17184     8995     8996     8933     8934    12111    11970    11968    11973
    17185     9007     9008     8996     8995    12131    12114    12111    12112
    17186     8996     8997     8932     8933    12113    11967    11965    11970
    17187     9008     9009     8997     8996    12132    12116    12113    12114
! ... 461 like lines cut
secnum,1    ! reset the section ID to default
MAT,6 $ TYPE,6 $ REAL,6 $ SECNUM,6 $ ESYS,0
eblock,11,COMPACT,,480
(11i9)
    17648     8987     8963     8952     8953    12038    12014    12013    12015
    17649     8988     8975     8963     8987    12073    12037    12038    12096
    17650     8963     8964     8951     8952    12036    12012    12011    12014
    17651     8975     8976     8964     8963    12072    12041    12036    12037
    17652     8964     8965     8950     8951    12040    12010    12009    12012
    17653     8976     8977     8965     8964    12075    12044    12040    12041
    17654     8965     8966     8949     8950    12043    12008    12007    12010
    17655     8977     8978     8966     8965    12077    12047    12043    12044
    17656     8966     8967     8948     8949    12046    12006    12005    12008
    17657     8978     8979     8967     8966    12079    12050    12046    12047
    17658     8967     8968     8947     8948    12049    12004    12003    12006
    17659     8979     8980     8968     8967    12081    12053    12049    12050
    17660     8968     8969     8946     8947    12052    12002    12001    12004
    17661     8980     8981     8969     8968    12083    12056    12052    12053
    17662     8969     8970     8945     8946    12055    12000    11999    12002
    17663     8981     8982     8970     8969    12085    12059    12055    12056
    17664     8995     8996     8933     8934    12111    11970    11968    11973
    17665     9007     9008     8996     8995    12131    12114    12111    12112
    17666     8996     8997     8932     8933    12113    11967    11965    11970
    17667     9008     9009     8997     8996    12132    12116    12113    12114
! ... 461 like lines cut
secnum,1    ! reset the section ID to default
MAT,6 $ TYPE,6 $ REAL,7 $ SECNUM,6 $ ESYS,0
eblock,11,COMPACT,,510
(11i9)
    18128    13926    13927    13939    13939    16433    16441    13939    16435
    18129    13927    13940    13939    13939    16442    16514    13939    16441
    18130    13929    13930    13942    13942    16454    16462    13942    16456
    18131    13925    13938    13937    13937    16429    16505    13937    16428
    18132    13928    13941    13940    13940    16449    16517    13940    16448
    18133    13936    13949    13937    13937    16503    16506    13937    16502
    18134    13925    13926    13938    13938    16427    16434    13938    16429
    18135    13924    13925    13937    13937    16422    16428    13937    16423
    18136    13926    13939    13938    13938    16435    16510    13938    16434
    18137    13924    13937    13949    13949    16423    16506    13949    16424
    18138    13929    13942    13941    13941    16456    16520    13941    16455
    18139    13930    13931    13943    13943    16461    16469    13943    16463
    18140    13927    13928    13940    13940    16440    16448    13940    16442
    18141    13928    13929    13941    13941    16447    16455    13941    16449
    18142    13930    13943    13942    13942    16463    16523    13942    16462
    18143    13931    13944    13943    13943    16470    16526    13943    16469
    18144    13923    13924    13949    13949    16419    16424    13949    16420
    18145    13959    13972    13971    13971    16576    16605    13971    16575
    18146    13962    13975    13974    13974    16585    16608    13974    16584
    18147    13960    13961    13973    13973    16577    16581    13973    16579
! ... 491 like lines cut
secnum,1    ! reset the section ID to default
MAT,7 $ TYPE,7 $ REAL,6 $ SECNUM,7 $ ESYS,0
eblock,11,COMPACT,,510
(11i9)
    18638    13926    13927    13939    13939    16433    16441    13939    16435
    18639    13927    13940    13939    13939    16442    16514    13939    16441
    18640    13929    13930    13942    13942    16454    16462    13942    16456
    18641    13925    13938    13937    13937    16429    16505    13937    16428
    18642    13928    13941    13940    13940    16449    16517    13940    16448
    18643    13936    13949    13937    13937    16503    16506    13937    16502
    18644    13925    13926    13938    13938    16427    16434    13938    16429
    18645    13924    13925    13937    13937    16422    16428    13937    16423
    18646    13926    13939    13938    13938    16435    16510    13938    16434
    18647    13924    13937    13949    13949    16423    16506    13949    16424
    18648    13929    13942    13941    13941    16456    16520    13941    16455
    18649    13930    13931    13943    13943    16461    16469    13943    16463
    18650    13927    13928    13940    13940    16440    16448    13940    16442
    18651    13928    13929    13941    13941    16447    16455    13941    16449
    18652    13930    13943    13942    13942    16463    16523    13942    16462
    18653    13931    13944    13943    13943    16470    16526    13943    16469
    18654    13923    13924    13949    13949    16419    16424    13949    16420
    18655    13959    13972    13971    13971    16576    16605    13971    16575
    18656    13962    13975    13974    13974    16585    16608    13974    16584
    18657    13960    13961    13973    13973    16577    16581    13973    16579
! ... 491 like lines cut
secnum,1    ! reset the section ID to default
keyo,cid,8,2               ! auto create asymmetric contact (from Program Controlled setting)
keyo,cid,10,0              ! adjust contact stiffness each NR iteration (from Program Controlled setting)
keyo,cid,12,5              ! bonded always
keyo,cid,18,1              ! small sliding turned on by application
keyo,cid,2,0               ! augmented Lagrange (from Program Controlled setting)
keyo,cid,4,0               ! on Gauss point (from Program Controlled setting)
keyo,cid,9,1               ! ignore initial gaps/penetration
keyo,cid,7,0               ! No Prediction
rmod,tid,3,10.      ! FKN
rmod,tid,5,0.       ! ICONT
rmod,tid,6,0.       ! PINB
rmod,tid,10,0.      ! CNOF
rmod,tid,12,0.      ! FKT
rmod,tid,36,193     ! WB DSID
rmod,cid,3,10.      ! FKN
rmod,cid,5,0.       ! ICONT
rmod,cid,6,0.       ! PINB
rmod,cid,10,0.      ! CNOF
rmod,cid,12,0.      ! FKT
rmod,cid,36,193     ! WB DSID
nsel,all
esel,all
/wb,contact,end            !  done creating contacts
/golist
/wb,load,start             !  starting to send loads
/com,*********** Fixed Supports ***********
CMBLOCK,_FIXEDSU,NODE,      473
(8i10)
        13       -24        36       -46        58       -68        79       -88
       101      -112       124      -134       146      -156       167      -176
       927       928       931       932       935       936       939       940
       943       944       947       948       951       952       955       956
      1175     -1282      1609     -1618      1620     -1630      1632     -1637
      1639     -1641      1644      1645      1770     -1774      1778     -1780
      1782     -1794      1796     -1798      1800     -1804      1917     -1921
      1924     -1927      1930     -1934      1936     -1938      1941     -1947
      1949     -1952      1955      1956      2063     -2065      2068     -2071
      2074      2075      2077     -2082      2084     -2088      2090      2091
      2093     -2096      2099      2100      2234     -2260      2262     -2264
      2267      2268      2389     -2393      2395     -2408      2410     -2414
      2416     -2418      2420      2421      2539     -2543      2546     -2549
      2552      2553      2555     -2560      2562     -2568      2570     -2573
      2576      2577      2680     -2682      2685     -2688      2691      2692
      2694     -2706      2708     -2711      2713      2714      5663      5664
      5667      5668      5682      5684      5685      5699      5700      5702
      5716      5718      5737      5738      5741      5742      5758      5760
      5761      5777      5778      5780      5795      5797      7205     -7216
      7222     -7227      7231     -7235      7240     -7245      7247     -7252
! ... 40 like lines cut
cmsel,s,_FIXEDSU
d,all,all
nsel,all
/com,******* Constant Zero Displacement X *******
CMBLOCK,_DISPZEROUX,NODE,      279
(8i10)
      8269     -8376      8958      8960      8962      8975     -8986      8988
      8990      9003     -9014      9016      9018      9020      9033     -9044
      9046      9048      9061     -9072      9074      9076      9089     -9100
      9102      9104      9117     -9128      9130      9132      9145     -9156
      9158      9160      9173     -9184      9186      9188      9190      9203
     -9214      9216      9218      9231     -9242      9244      9246      9248
      9261     -9272      9274      9276      9289     -9300      9302      9304
      9306      9319     -9330      9332      9334      9347     -9358      9360
      9362      9364      9377     -9388      9390      9392      9405     -9416
      9418      9420      9433     -9444      9446      9448      9461     -9472
      9474      9476      9489     -9500      9502      9504      9517     -9528
      9530      9532      9545     -9556      9558      9560      9573     -9584
      9586      9588      9590      9603     -9614      9616      9618      9635
     -9650      9652      9689     -9724      9726      9743     -9758      9760
      9762      9775     -9786      9788      9790      9792      9805     -9816
      9818      9820      9833     -9844      9846      9848      9861     -9872
      9874      9876      9889     -9900     10372    -10626     12024     12025
     12029     12030     12034     12035     12072    -12095     12098     12101
     12126    -12137     12140     12143     12147     12148     12185    -12208
     12211     12214     12239    -12250     12253     12257     12258     12295
! ... 15 like lines cut
cmsel,s,_DISPZEROUX
d,all,ux,0
nsel,all
/com,******* Constant Zero Displacement Z *******
CMBLOCK,_DISPZEROUZ,NODE,      279
(8i10)
      8269     -8376      8958      8960      8962      8975     -8986      8988
      8990      9003     -9014      9016      9018      9020      9033     -9044
      9046      9048      9061     -9072      9074      9076      9089     -9100
      9102      9104      9117     -9128      9130      9132      9145     -9156
      9158      9160      9173     -9184      9186      9188      9190      9203
     -9214      9216      9218      9231     -9242      9244      9246      9248
      9261     -9272      9274      9276      9289     -9300      9302      9304
      9306      9319     -9330      9332      9334      9347     -9358      9360
      9362      9364      9377     -9388      9390      9392      9405     -9416
      9418      9420      9433     -9444      9446      9448      9461     -9472
      9474      9476      9489     -9500      9502      9504      9517     -9528
      9530      9532      9545     -9556      9558      9560      9573     -9584
      9586      9588      9590      9603     -9614      9616      9618      9635
     -9650      9652      9689     -9724      9726      9743     -9758      9760
      9762      9775     -9786      9788      9790      9792      9805     -9816
      9818      9820      9833     -9844      9846      9848      9861     -9872
      9874      9876      9889     -9900     10372    -10626     12024     12025
     12029     12030     12034     12035     12072    -12095     12098     12101
     12126    -12137     12140     12143     12147     12148     12185    -12208
     12211     12214     12239    -12250     12253     12257     12258     12295
! ... 15 like lines cut
cmsel,s,_DISPZEROUZ
d,all,uz,0
nsel,all
/gst,on,on
fini
*get,_numnode,node,0,count
*get,_numelem,elem,0,count
*get, _MAXELEMNUM, elem, 0, NUM, MAX
*get, _MAXNODENUM, node, 0, NUM, MAX
*get, _MAXELEMTYPE, etyp, 0, NUM, MAX
*get, _MAXREALCONST, rcon, 0, NUM, MAX
/go
/wb,load,end               !  done creating loads
/com,--- Number of total nodes = %_numnode%
/com,--- Number of contact elements = 2236
/com,--- Number of spring elements = 0
/com,--- Number of bearing elements = 0
/com,--- Number of solid elements = 9221
/com,--- Number of condensed parts = 0
/com,--- Number of total elements = %_numelem%
*get,_wallbsol,active,,time,wall
/com,****************************************************************************
/com,*************************    SOLUTION       ********************************
/com,****************************************************************************
/solu
antype,0                   ! static analysis
_thickRatio=  0     ! Ratio of thick parts in the model
eqsl,sparse,,,,,1
cntr,print,1               ! print out contact info and also make no initial contact an error
dmpoption,emat,no             ! Don't combine emat file for DANSYS
dmpoption,esav,no             ! Don't combine esav file for DANSYS
nldiag,cont,iter           ! print out contact info each equilibrium iteration
rescontrol,,none                 ! Do not keep any restart files
/com,****************************************************
/com,******************* SOLVE FOR LS 1 OF 1 ****************
/nopr
/gopr
nsub,1,1,1
time,1.
outres,erase
outres,all,none
outres,nsol,all,
outres,rsol,all
outres,eangl,all
outres,etmp,all
outres,veng,all
outres,strs,all,
outres,epel,all,
outres,eppl,all,
outres,cont,all,
! ****** Begin Custom Load Command Snippet ******
/com,
/com,***********  Electrostatic-Structural Body1 ***********
/com,
CMBLOCK,Electroelastic Body1,NODE,      10207
(8i10)
     16384     16385     16386     16387     16388     16389     16390     16391
     16392     16393     16394     16395     16396     16397     16398     16399
     16400     16401     16402     16403     16404     16405     16406     16407
     16408     16409     16410     16411     16412     16413     16414     16415
     16416     16417     16418     16419     16420     16421     16422     16423
     16424     16425     16426     16427     16428     16429     16430     16431
     16432     16433     16434     16435     16436     16437     16438     16439
     16440     16441     16442     16443     16444     16445     16446     16447
     16448     16449     16450     16451     16452     16453     16454     16455
     16456     16457     16458     16459     16460     16461     16462     16463
     16464     16465     16466     16467     16468     16469     16470     16471
     16472     16473     16474     16475     16476     16477     16478     16479
     16480     16481     16482     16483     16484     16485     16486     16487
     16488     16489     16490     16491     16492     16493     16494     16495
     16496     16497     16498     16499     16500     16501     16502     16503
     16504     16505     16506     16507     16508     16509     16510     16511
     16512     16513     16514     16515     16516     16517     16518     16519
     16520     16521     16522     16523     16524     16525     16526     16527
     16528     16529     16530     16531     16532     16533     16534     16535
     16536     16537     16538     16539     16540     16541     16542     16543
! ... 1256 like lines cut

/PREP7
CMSEL,S,Electroelastic Body1
ESLN,S,1
ESEL,R,ENAME,,185
*GET,iNum185,ELEM,0, COUNT
*IF, iNum185,GT,0,THEN
_icurrentElem = 0
*DO,ar30,1,iNum185,1
    _icurrentElem = ELNEXT(_icurrentElem)
    EMODIF,_icurrentElem,ESYS,12
	*GET, _icurrentETyp, ELEM, _icurrentElem, ATTR, TYPE
    ET,_icurrentETyp,226,1001,,,1
    KEYOPT,_icurrentETyp,11,0
	*GET, _icurrentMat, ELEM, _icurrentElem, ATTR, MAT
	MPDELE,RSVX, _icurrentMat
	MPDELE,RSVY, _icurrentMat
	MPDELE,RSVZ, _icurrentMat
  
	TB,DPER,_icurrentMat,,,0
	TBDATA, 1, 1, 1, 1
  
*ENDDO
*ENDIF

CMSEL,S,Electroelastic Body1
ESLN,S,1
ESEL,R,ENAME,,186
*GET,iNum186,ELEM,0, COUNT
*IF, iNum186,GT,0,THEN
_icurrentElem = 0
*DO,ar30,1,iNum186,1
    _icurrentElem = ELNEXT(_icurrentElem)
    EMODIF,_icurrentElem,ESYS,12
	*GET, _icurrentETyp, ELEM, _icurrentElem, ATTR, TYPE
    ET,_icurrentETyp,226,1001,,,1
    KEYOPT,_icurrentETyp,11,0
	*GET, _icurrentMat, ELEM, _icurrentElem, ATTR, MAT
	MPDELE,RSVX, _icurrentMat
	MPDELE,RSVY, _icurrentMat
	MPDELE,RSVZ, _icurrentMat
  
	TB,DPER,_icurrentMat,,,0
	TBDATA, 1, 1, 1, 1
  
*ENDDO
*ENDIF

CMSEL,S,Electroelastic Body1
ESLN,S,1
ESEL,R,ENAME,,187
*GET,iNum187,ELEM,0, COUNT
*IF, iNum187,GT,0,THEN
_icurrentElem = 0
*DO,ar30,1,iNum187,1
    _icurrentElem = ELNEXT(_icurrentElem)
    EMODIF,_icurrentElem,ESYS,12
	*GET, _icurrentETyp, ELEM, _icurrentElem, ATTR, TYPE
    ET,_icurrentETyp,227,1001,,,1
    KEYOPT,_icurrentETyp,11,0
	*GET, _icurrentMat, ELEM, _icurrentElem, ATTR, MAT
	MPDELE,RSVX, _icurrentMat
	MPDELE,RSVY, _icurrentMat
	MPDELE,RSVZ, _icurrentMat
  
	TB,DPER,_icurrentMat,,,0
	TBDATA, 1, 1, 1, 1
  
*ENDDO
*ENDIF

CMSEL,S,Electroelastic Body1
ESLN,S,1
ESEL,R,ENAME,,182
*GET,iNum182,ELEM,0, COUNT
*IF, iNum182,GT,0,THEN
_icurrentElem = 0
*DO,ar30,1,iNum182,1
    _icurrentElem = ELNEXT(_icurrentElem)
    EMODIF,_icurrentElem,ESYS,12
	*GET, _icurrentETyp, ELEM, _icurrentElem, ATTR, TYPE
	*GET, _planebehavior, ETYP, _icurrentETyp, ATTR, KOP3
	*IF, _planebehavior, EQ, 3, THEN
	    _planebehavior = 0
	*ENDIF
    ET,_icurrentETyp,223,1001,,_planebehavior,1
	*GET, _icurrentMat, ELEM, _icurrentElem, ATTR, MAT
	MPDELE,RSVX, _icurrentMat
	MPDELE,RSVY, _icurrentMat
	MPDELE,RSVZ, _icurrentMat
  
	TB,DPER,_icurrentMat,,,0
  
*ENDDO
*ENDIF

CMSEL,S,Electroelastic Body1
ESLN,S,1
ESEL,R,ENAME,,183
*GET,iNum183,ELEM,0, COUNT
*IF, iNum183,GT,0,THEN
_icurrentElem = 0
*DO,ar30,1,iNum183,1
    _icurrentElem = ELNEXT(_icurrentElem)
    EMODIF,_icurrentElem,ESYS,12
	*GET, _icurrentETyp, ELEM, _icurrentElem, ATTR, TYPE
	*GET, _planebehavior, ETYP, _icurrentETyp, ATTR, KOP3
	*IF, _planebehavior, EQ, 3, THEN
	    _planebehavior = 0
	*ENDIF
    ET,_icurrentETyp,223,1001,,_planebehavior,1
	*GET, _icurrentMat, ELEM, _icurrentElem, ATTR, MAT
	MPDELE,RSVX, _icurrentMat
	MPDELE,RSVY, _icurrentMat
	MPDELE,RSVZ, _icurrentMat
  
	TB,DPER,_icurrentMat,,,0
  
*ENDDO
*ENDIF

EMUNIT, EPZRO, 8.854E-12

/SOLU
ALLSEL,ALL
OUTRES,FGRAD,ALL

/com,
/com,***********  Electrostatic-Structural Body 221 ***********
/com,
CMBLOCK,Electroelastic Body21,NODE,      5666
(8i10)
      8192      8193      8194      8195      8196      8197      8198      8199
      8200      8201      8202      8203      8204      8205      8206      8207
      8208      8209      8210      8211      8212      8213      8214      8215
      8216      8217      8218      8219      8220      8221      8222      8223
      8224      8225      8226      8227      8228      8229      8230      8231
      8232      8233      8234      8235      8236      8237      8238      8239
      8240      8241      8242      8243      8244      8245      8246      8247
      8248      8249      8250      8251      8252      8253      8254      8255
      8256      8257      8258      8259      8260      8261      8262      8263
      8264      8265      8266      8267      8268      8269      8270      8271
      8272      8273      8274      8275      8276      8277      8278      8279
      8280      8281      8282      8283      8284      8285      8286      8287
      8288      8289      8290      8291      8292      8293      8294      8295
      8296      8297      8298      8299      8300      8301      8302      8303
      8304      8305      8306      8307      8308      8309      8310      8311
      8312      8313      8314      8315      8316      8317      8318      8319
      8320      8321      8322      8323      8324      8325      8326      8327
      8328      8329      8330      8331      8332      8333      8334      8335
      8336      8337      8338      8339      8340      8341      8342      8343
      8344      8345      8346      8347      8348      8349      8350      8351
! ... 689 like lines cut

/PREP7
CMSEL,S,Electroelastic Body21
ESLN,S,1
ESEL,R,ENAME,,185
*GET,iNum185,ELEM,0, COUNT
*IF, iNum185,GT,0,THEN
_icurrentElem = 0
*DO,ar30,1,iNum185,1
    _icurrentElem = ELNEXT(_icurrentElem)
    EMODIF,_icurrentElem,ESYS,13
	*GET, _icurrentETyp, ELEM, _icurrentElem, ATTR, TYPE
    ET,_icurrentETyp,226,1001,,,1
    KEYOPT,_icurrentETyp,11,0
	*GET, _icurrentMat, ELEM, _icurrentElem, ATTR, MAT
	MPDELE,RSVX, _icurrentMat
	MPDELE,RSVY, _icurrentMat
	MPDELE,RSVZ, _icurrentMat
  
	TB,DPER,_icurrentMat,,,0
	TBDATA, 1, 1, 1, 1
  
*ENDDO
*ENDIF

CMSEL,S,Electroelastic Body21
ESLN,S,1
ESEL,R,ENAME,,186
*GET,iNum186,ELEM,0, COUNT
*IF, iNum186,GT,0,THEN
_icurrentElem = 0
*DO,ar30,1,iNum186,1
    _icurrentElem = ELNEXT(_icurrentElem)
    EMODIF,_icurrentElem,ESYS,13
	*GET, _icurrentETyp, ELEM, _icurrentElem, ATTR, TYPE
    ET,_icurrentETyp,226,1001,,,1
    KEYOPT,_icurrentETyp,11,0
	*GET, _icurrentMat, ELEM, _icurrentElem, ATTR, MAT
	MPDELE,RSVX, _icurrentMat
	MPDELE,RSVY, _icurrentMat
	MPDELE,RSVZ, _icurrentMat
  
	TB,DPER,_icurrentMat,,,0
	TBDATA, 1, 1, 1, 1
  
*ENDDO
*ENDIF

CMSEL,S,Electroelastic Body21
ESLN,S,1
ESEL,R,ENAME,,187
*GET,iNum187,ELEM,0, COUNT
*IF, iNum187,GT,0,THEN
_icurrentElem = 0
*DO,ar30,1,iNum187,1
    _icurrentElem = ELNEXT(_icurrentElem)
    EMODIF,_icurrentElem,ESYS,13
	*GET, _icurrentETyp, ELEM, _icurrentElem, ATTR, TYPE
    ET,_icurrentETyp,227,1001,,,1
    KEYOPT,_icurrentETyp,11,0
	*GET, _icurrentMat, ELEM, _icurrentElem, ATTR, MAT
	MPDELE,RSVX, _icurrentMat
	MPDELE,RSVY, _icurrentMat
	MPDELE,RSVZ, _icurrentMat
  
	TB,DPER,_icurrentMat,,,0
	TBDATA, 1, 1, 1, 1
  
*ENDDO
*ENDIF

CMSEL,S,Electroelastic Body21
ESLN,S,1
ESEL,R,ENAME,,182
*GET,iNum182,ELEM,0, COUNT
*IF, iNum182,GT,0,THEN
_icurrentElem = 0
*DO,ar30,1,iNum182,1
    _icurrentElem = ELNEXT(_icurrentElem)
    EMODIF,_icurrentElem,ESYS,13
	*GET, _icurrentETyp, ELEM, _icurrentElem, ATTR, TYPE
	*GET, _planebehavior, ETYP, _icurrentETyp, ATTR, KOP3
	*IF, _planebehavior, EQ, 3, THEN
	    _planebehavior = 0
	*ENDIF
    ET,_icurrentETyp,223,1001,,_planebehavior,1
	*GET, _icurrentMat, ELEM, _icurrentElem, ATTR, MAT
	MPDELE,RSVX, _icurrentMat
	MPDELE,RSVY, _icurrentMat
	MPDELE,RSVZ, _icurrentMat
  
	TB,DPER,_icurrentMat,,,0
  
*ENDDO
*ENDIF

CMSEL,S,Electroelastic Body21
ESLN,S,1
ESEL,R,ENAME,,183
*GET,iNum183,ELEM,0, COUNT
*IF, iNum183,GT,0,THEN
_icurrentElem = 0
*DO,ar30,1,iNum183,1
    _icurrentElem = ELNEXT(_icurrentElem)
    EMODIF,_icurrentElem,ESYS,13
	*GET, _icurrentETyp, ELEM, _icurrentElem, ATTR, TYPE
	*GET, _planebehavior, ETYP, _icurrentETyp, ATTR, KOP3
	*IF, _planebehavior, EQ, 3, THEN
	    _planebehavior = 0
	*ENDIF
    ET,_icurrentETyp,223,1001,,_planebehavior,1
	*GET, _icurrentMat, ELEM, _icurrentElem, ATTR, MAT
	MPDELE,RSVX, _icurrentMat
	MPDELE,RSVY, _icurrentMat
	MPDELE,RSVZ, _icurrentMat
  
	TB,DPER,_icurrentMat,,,0
  
*ENDDO
*ENDIF

EMUNIT, EPZRO, 8.854E-12

/SOLU
ALLSEL,ALL
OUTRES,FGRAD,ALL

/com,
/com,***********  Voltage41 ***********
/com,
CMBLOCK,Voltage41,NODE,      2640
(8i10)
     20474     20475     20476     20479     20480     20481     20484     20485
     20487     20490     20491     20494     20497     20498     20502     20505
     20506     20508     20511     20512     16419     20515     16421     16422
     20516     16425     16426     16427     16430     16431     16433     16436
     16437     16440     16443     16444     16447     16450     16451     16454
     16457     16458     16461     16464     16465     16468     16471     16472
     16475     16478     16479     16482     20580     16485     16486     16489
     20585     20587     16492     16493     20588     20589     20592     16498
     16499     20595     20599     20603     20606     20609     20612     20615
     20618     20621     16549     16554     16556     16557     16558     16559
     20653     20655     16562     20656     20657     16565     20658     20660
     16568     20661     16571     16574     16577     16580     16583     20679
     20681     16586     20682     16589     20685     20686     20688     20691
     20692     20695     20698     20699     20702     20705     20706     20709
     20712     20713     16619     20716     16621     16622     16623     16624
     20719     16626     16627     20720     20723     20726     20727     20730
     20733     20734     20737     20740     20741     20744     16649     16651
     16652     20747     20748     16655     16656     16657     20751     20754
     16660     16661     16662     20755     20760     16665     16666     16667
     20761     16670     16671     16673     16676     16677     16680     16683
! ... 310 like lines cut


CMSEL,S,Voltage41
*GET,_NUMMIN,NODE,,NUM,MIN
_isCP = 0
*GET, _isCP, NODE, _NUMMIN, CPS, VOLT
*IF, _isCP, EQ, 0, THEN
CP,NEXT,VOLT,ALL
*ENDIF
D,_NUMMIN,VOLT,0,0
ALLSEL,ALL

/com,
/com,***********  Voltage 261 ***********
/com,
CMBLOCK,Voltage61,NODE,      1502
(8i10)
     12295     12296     12297     12298     12299     12300     12301     12302
     12303     12304     12305     12306     12307     12308     12309     12310
     12311     12312     12313     12314     12315     12316     12317     12318
     12321     12324     12349     12350     12351     12352     12353     12354
     12355     12356     12357     12358     12359     12360     12363      8269
      8270      8271      8272      8273      8274      8275      8276      8277
      8278      8279      8280      8281      8282      8283      8284      8285
      8286      8287      8288      8289      8290      8291      8292      8293
      8294      8295      8296      8297      8298      8299      8300      8301
      8302      8303      8304      8305      8306      8307      8308      8309
      8310      8311      8312      8313      8314      8315      8316      8317
      8318      8319      8320      8321      8322      8323      8324      8325
      8326      8327      8328      8329      8330      8331      8332      8333
      8334      8335      8336      8337      8338      8339      8340      8341
      8342      8343      8344      8345      8346      8347      8348      8349
      8350      8351      8352      8353      8354      8355      8356      8357
      8358      8359      8360      8361      8362      8363      8364      8365
      8366      8367      8368      8369      8370      8371      8372      8373
      8374      8375      8376     12367     12368     12405     12406     12407
     12408     12409     12410     12411     12412     12413     12414     12415
! ... 168 like lines cut

CMSEL,S,Voltage61
*GET,_NUMMIN,NODE,,NUM,MIN
_isCP = 0
*GET, _isCP, NODE, _NUMMIN, CPS, VOLT
*IF, _isCP, EQ, 0, THEN
CP,NEXT,VOLT,ALL
*ENDIF
D,_NUMMIN,VOLT,150,0
ALLSEL,ALL

! ****** End   Custom Load Command Snippet ******
! *********** WB SOLVE COMMAND ***********
! check interactive state
*get,ANSINTER_,active,,int
*if,ANSINTER_,ne,0,then
/eof
*endif
solve
/com *************** Write FE CONNECTORS ********* 
CEWRITE,file,ce,,INTE
/com,****************************************************
/com,*************** FINISHED SOLVE FOR LS 1 *************
*get,_wallasol,active,,time,wall
/nopr
*get,_numnode,node,0,count
*get,_numelem,elem,0,count
*get, _MAXELEMNUM, elem, 0, NUM, MAX
*get, _MAXNODENUM, node, 0, NUM, MAX,,,INTERNAL
*get, _MAXELEMTYPE, etyp, 0, NUM, MAX
*get, _MAXREALCONST, rcon, 0, NUM, MAX
*get,_NSOLTHREADS,active,0,ntfs
*get,_NSOLPROCESSES,active,0,npfs
/gopr
/post1
xmlo,ENCODING,ISO-8859-1
xmlo,parm
/xml,parm,xml
fini
/gopr
*get,_walldone,active,,time,wall
_preptime=(_wallbsol-_wallstrt)*3600
_solvtime=(_wallasol-_wallbsol)*3600
_posttime=(_walldone-_wallasol)*3600
_totaltim=(_walldone-_wallstrt)*3600
*get,_dlbratio,active,0,solu,dlbr
*get,_combtime,active,0,solu,comb
*get,_ssmode,active,0,solu,ssmm
*get,_ndofs,active,0,solu,ndof
*get,_sol_end_time,active,0,set,time
*if,_sol_end_time,eq,1.000000,then
/fclean				!clean distributed files
*endif
/com,--- Total number of nodes = %_numnode%
/com,--- Total number of elements = %_numelem%
/com,--- Element load balance ratio = %_dlbratio%
/com,--- Time to combine distributed files = %_combtime%
/com,--- Sparse memory mode = %_ssmode%
/com,--- Number of DOF = %_ndofs%
/wb,file,end               ! done with WB generated input
